lig2
  PyMOL2.5          3D                             0

 77 82  0  0  0  0  0  0  0  0999 V2000
    9.0970  -69.9690   21.6130 P   0  0  0  0  0  0  0  0  0  0  0  0
    9.2220  -70.1590   18.8970 P   0  0  0  0  0  0  0  0  0  0  0  0
    9.5630  -72.5810   18.0360 P   0  0  0  0  0  0  0  0  0  0  0  0
   12.5760  -71.4970   24.9240 C   0  0  0  0  0  0  0  0  0  0  0  0
   10.4210  -78.0170   19.9040 C   0  0  0  0  0  0  0  0  0  0  0  0
   10.9970  -71.6280   30.0100 N   0  0  0  0  0  0  0  0  0  0  0  0
   13.1740  -82.2110   20.8640 N   0  0  0  0  0  0  0  0  0  0  0  0
   12.3000  -72.0500   29.4350 C   0  0  0  0  0  0  0  0  0  0  0  0
   12.7970  -72.9940   24.6240 C   0  0  0  0  0  0  0  0  0  0  0  0
    9.1000  -78.1070   20.6900 C   0  0  0  0  0  0  0  0  0  0  0  0
   11.9570  -82.0620   20.1020 C   0  0  0  0  0  0  0  0  0  0  0  0
   13.3220  -72.5660   30.2490 N   0  0  0  0  0  0  0  0  0  0  0  0
   14.2070  -73.2120   24.4750 O   0  0  0  0  0  0  0  0  0  0  0  0
   12.0790  -73.1430   23.3170 C   0  0  0  0  0  0  0  0  0  0  0  0
    8.9650  -76.6850   21.2340 C   0  0  0  0  0  0  0  0  0  0  0  0
   12.4830  -71.9260   28.1230 N   0  0  0  0  0  0  0  0  0  0  0  0
   11.3930  -80.7990   19.9830 N   0  0  0  0  0  0  0  0  0  0  0  0
   12.4690  -74.3170   22.6030 O   0  0  0  0  0  0  0  0  0  0  0  0
    7.6160  -76.3650   21.7220 O   0  0  0  0  0  0  0  0  0  0  0  0
   11.4810  -71.3930   27.1820 C   0  0  0  0  0  0  0  0  0  0  0  0
   12.3490  -71.7810   22.6160 C   0  0  0  0  0  0  0  0  0  0  0  0
    9.4560  -75.7780   20.0870 C   0  0  0  0  0  0  0  0  0  0  0  0
   12.1070  -79.7010   20.6600 C   0  0  0  0  0  0  0  0  0  0  0  0
   12.3230  -70.8120   23.6640 O   0  0  0  0  0  0  0  0  0  0  0  0
   10.5930  -76.5920   19.5640 O   0  0  0  0  0  0  0  0  0  0  0  0
   10.1710  -70.9580   27.7050 C   0  0  0  0  0  0  0  0  0  0  0  0
   11.5670  -71.1490   21.4140 C   0  0  0  0  0  0  0  0  0  0  0  0
    9.7080  -74.4840   20.3490 C   0  0  0  0  0  0  0  0  0  0  0  0
   13.3680  -79.9120   21.4360 C   0  0  0  0  0  0  0  0  0  0  0  0
    9.9360  -71.0990   29.2540 C   0  0  0  0  0  0  0  0  0  0  0  0
   13.9200  -81.1530   21.5540 C   0  0  0  0  0  0  0  0  0  0  0  0
   14.9990  -81.4130   22.2060 N   0  0  0  0  0  0  0  0  0  0  0  0
    8.8880  -70.7760   29.8200 O   0  0  0  0  0  0  0  0  0  0  0  0
    7.9350  -69.9400   26.7500 C   0  0  0  0  0  0  0  0  0  0  0  0
    9.3130  -70.4720   26.7110 N   0  3  0  0  0  0  0  0  0  0  0  0
   13.6130  -78.5210   21.8650 N   0  0  0  0  0  0  0  0  0  0  0  0
   10.1860  -70.6540   25.6310 C   0  0  0  0  0  0  0  0  0  0  0  0
   12.6830  -77.6910   21.4250 C   0  0  0  0  0  0  0  0  0  0  0  0
   11.5220  -71.2080   25.8230 N   0  0  0  0  0  0  0  0  0  0  0  0
   11.7320  -78.3870   20.6750 N   0  0  0  0  0  0  0  0  0  0  0  0
    7.7700  -70.2090   22.3880 O   0  5  0  0  0  0  0  0  0  0  0  0
    9.5930  -68.4800   21.7510 O   0  0  0  0  0  0  0  0  0  0  0  0
    8.5950  -70.5400   20.4230 O   0  0  0  0  0  0  0  0  0  0  0  0
   10.1940  -71.1220   21.9750 O   0  0  0  0  0  0  0  0  0  0  0  0
    8.1260  -69.5870   17.9900 O   0  5  0  0  0  0  0  0  0  0  0  0
   10.3880  -69.1250   18.9590 O   0  0  0  0  0  0  0  0  0  0  0  0
    9.5810  -71.0310   18.0100 O   0  0  0  0  0  0  0  0  0  0  0  0
    8.1370  -73.1380   18.2230 O   0  5  0  0  0  0  0  0  0  0  0  0
   10.0610  -73.0230   16.7620 O   0  0  0  0  0  0  0  0  0  0  0  0
   10.2130  -73.7040   19.0150 O   0  0  0  0  0  0  0  0  0  0  0  0
    8.0073  -78.4576   19.9790 F   0  0  0  0  0  0  0  0  0  0  0  0
   10.8649  -71.7273   31.0064 H   0  0  0  0  0  0  0  0  0  0  0  0
    9.8612  -70.3765   24.6282 H   0  0  0  0  0  0  0  0  0  0  0  0
   12.6613  -76.6187   21.6193 H   0  0  0  0  0  0  0  0  0  0  0  0
   11.4894  -82.9254   19.6287 H   0  0  0  0  0  0  0  0  0  0  0  0
   10.3189  -78.7288   19.0848 H   0  0  0  0  0  0  0  0  0  0  0  0
   12.4466  -73.6928   25.3836 H   0  0  0  0  0  0  0  0  0  0  0  0
    9.1493  -78.8999   21.4364 H   0  0  0  0  0  0  0  0  0  0  0  0
   14.2013  -72.8463   29.8388 H   0  0  0  0  0  0  0  0  0  0  0  0
   13.4827  -71.1511   25.4203 H   0  0  0  0  0  0  0  0  0  0  0  0
   13.1775  -72.6567   31.2445 H   0  0  0  0  0  0  0  0  0  0  0  0
   14.5010  -72.8470   23.6372 H   0  0  0  0  0  0  0  0  0  0  0  0
   11.0074  -73.3203   23.4078 H   0  0  0  0  0  0  0  0  0  0  0  0
    9.5638  -76.5390   22.1330 H   0  0  0  0  0  0  0  0  0  0  0  0
   12.4744  -74.1322   21.6610 H   0  0  0  0  0  0  0  0  0  0  0  0
    7.3658  -75.4885   21.4209 H   0  0  0  0  0  0  0  0  0  0  0  0
   13.2526  -72.0510   22.0695 H   0  0  0  0  0  0  0  0  0  0  0  0
    8.6740  -75.5666   19.3577 H   0  0  0  0  0  0  0  0  0  0  0  0
   11.6641  -71.6894   20.4724 H   0  0  0  0  0  0  0  0  0  0  0  0
   11.9274  -70.1474   21.1795 H   0  0  0  0  0  0  0  0  0  0  0  0
   10.4960  -74.4303   21.1001 H   0  0  0  0  0  0  0  0  0  0  0  0
    8.7973  -74.0105   20.7158 H   0  0  0  0  0  0  0  0  0  0  0  0
   15.4974  -80.6699   22.6745 H   0  0  0  0  0  0  0  0  0  0  0  0
   15.3472  -82.3601   22.2491 H   0  0  0  0  0  0  0  0  0  0  0  0
    7.2729  -70.6803   27.1991 H   0  0  0  0  0  0  0  0  0  0  0  0
    7.9142  -69.0266   27.3445 H   0  0  0  0  0  0  0  0  0  0  0  0
    7.6003  -69.7218   25.7359 H   0  0  0  0  0  0  0  0  0  0  0  0
  1 41  1  0  0  0  0
  1 42  2  0  0  0  0
  1 43  1  0  0  0  0
  1 44  1  0  0  0  0
  2 45  1  0  0  0  0
  2 46  2  0  0  0  0
  2 47  1  0  0  0  0
  3 48  1  0  0  0  0
  3 49  2  0  0  0  0
  3 50  1  0  0  0  0
  4  9  1  0  0  0  0
  4 24  1  0  0  0  0
  4 60  1  0  0  0  0
  5 40  1  0  0  0  0
  5 56  1  0  0  0  0
  6 52  1  0  0  0  0
  7 11  1  0  0  0  0
  6  8  1  0  0  0  0
  9 13  1  0  0  0  0
  9 14  1  0  0  0  0
  9 57  1  0  0  0  0
  5 10  1  0  0  0  0
 10 51  1  0  0  0  0
 10 58  1  0  0  0  0
 11 17  2  0  0  0  0
 11 55  1  0  0  0  0
  8 12  1  0  0  0  0
 12 59  1  0  0  0  0
 12 61  1  0  0  0  0
 13 62  1  0  0  0  0
 14 21  1  0  0  0  0
 14 63  1  0  0  0  0
 10 15  1  0  0  0  0
 15 19  1  0  0  0  0
 15 64  1  0  0  0  0
  8 16  2  0  0  0  0
 17 23  1  0  0  0  0
 14 18  1  0  0  0  0
 18 65  1  0  0  0  0
 19 66  1  0  0  0  0
 16 20  1  0  0  0  0
 21 24  1  0  0  0  0
 21 27  1  0  0  0  0
 21 67  1  0  0  0  0
 15 22  1  0  0  0  0
 22 25  1  0  0  0  0
 22 68  1  0  0  0  0
  5 25  1  0  0  0  0
 20 26  2  0  0  0  0
 26 35  1  0  0  0  0
 27 44  1  0  0  0  0
 27 69  1  0  0  0  0
 27 70  1  0  0  0  0
 22 28  1  0  0  0  0
 28 71  1  0  0  0  0
 28 72  1  0  0  0  0
 23 29  2  0  0  0  0
 29 31  1  0  0  0  0
  6 30  1  0  0  0  0
 26 30  1  0  0  0  0
  7 31  2  0  0  0  0
 31 32  1  0  0  0  0
 32 73  1  0  0  0  0
 32 74  1  0  0  0  0
 30 33  2  0  0  0  0
 34 75  1  0  0  0  0
 34 76  1  0  0  0  0
 34 77  1  0  0  0  0
 34 35  1  0  0  0  0
 35 37  2  0  0  0  0
 29 36  1  0  0  0  0
 37 39  1  0  0  0  0
 37 53  1  0  0  0  0
 36 38  2  0  0  0  0
 38 54  1  0  0  0  0
  4 39  1  0  0  0  0
 20 39  1  0  0  0  0
 23 40  1  0  0  0  0
 38 40  1  0  0  0  0
  2 43  1  0  0  0  0
  3 47  1  0  0  0  0
 28 50  1  0  0  0  0
M  END

$$$$
